
*** ChampSim Multicore Out-of-Order Simulator ***

Warmup Instructions: 1000000
Simulation Instructions: 10000000
Number of CPUs: 4
LLC sets: 4096
LLC ways: 16
Off-chip DRAM Size: 4096 MB Channels: 1 Width: 64-bit Data Rate: 3200 MT/s

CPU 0 runs /mnt/c/Users/dadir/Downloads/Lab-Final/ChampSim-master/dpc3_traces/619.lbm_s-3766B.champsimtrace.xz
CPU 1 runs /mnt/c/Users/dadir/Downloads/Lab-Final/ChampSim-master/dpc3_traces/403.gcc-16B.champsimtrace.xz
CPU 2 runs /mnt/c/Users/dadir/Downloads/Lab-Final/ChampSim-master/dpc3_traces/401.bzip2-277B.champsimtrace.xz
CPU 3 runs /mnt/c/Users/dadir/Downloads/Lab-Final/ChampSim-master/dpc3_traces/620.omnetpp_s-874B.champsimtrace.xz
CPU 0 Bimodal branch predictor
CPU 1 Bimodal branch predictor
CPU 2 Bimodal branch predictor
CPU 3 Bimodal branch predictor
Initialize DRRIP state
Assign rand_sets[0]: 454  LLC: 4096
rand_sets[0]: 454
Assign rand_sets[1]: 1662  LLC: 4096
rand_sets[1]: 1662
Assign rand_sets[2]: 1921  LLC: 4096
rand_sets[2]: 1921
Assign rand_sets[3]: 1131  LLC: 4096
rand_sets[3]: 1131
Assign rand_sets[4]: 2379  LLC: 4096
rand_sets[4]: 2379
Assign rand_sets[5]: 1531  LLC: 4096
rand_sets[5]: 1531
Assign rand_sets[6]: 2530  LLC: 4096
rand_sets[6]: 2530
Assign rand_sets[7]: 3323  LLC: 4096
rand_sets[7]: 3323
Assign rand_sets[8]: 3924  LLC: 4096
rand_sets[8]: 3924
Assign rand_sets[9]: 4086  LLC: 4096
rand_sets[9]: 4086
Assign rand_sets[10]: 2749  LLC: 4096
rand_sets[10]: 2749
Assign rand_sets[11]: 479  LLC: 4096
rand_sets[11]: 479
Assign rand_sets[12]: 892  LLC: 4096
rand_sets[12]: 892
Assign rand_sets[13]: 3868  LLC: 4096
rand_sets[13]: 3868
Assign rand_sets[14]: 3553  LLC: 4096
rand_sets[14]: 3553
Assign rand_sets[15]: 1159  LLC: 4096
rand_sets[15]: 1159
Assign rand_sets[16]: 513  LLC: 4096
rand_sets[16]: 513
Assign rand_sets[17]: 703  LLC: 4096
rand_sets[17]: 703
Assign rand_sets[18]: 561  LLC: 4096
rand_sets[18]: 561
Assign rand_sets[19]: 990  LLC: 4096
rand_sets[19]: 990
Assign rand_sets[20]: 2390  LLC: 4096
rand_sets[20]: 2390
Assign rand_sets[21]: 882  LLC: 4096
rand_sets[21]: 882
Assign rand_sets[22]: 15  LLC: 4096
rand_sets[22]: 15
Assign rand_sets[23]: 2119  LLC: 4096
rand_sets[23]: 2119
Assign rand_sets[24]: 3175  LLC: 4096
rand_sets[24]: 3175
Assign rand_sets[25]: 1382  LLC: 4096
rand_sets[25]: 1382
Assign rand_sets[26]: 647  LLC: 4096
rand_sets[26]: 647
Assign rand_sets[27]: 857  LLC: 4096
rand_sets[27]: 857
Assign rand_sets[28]: 3498  LLC: 4096
rand_sets[28]: 3498
Assign rand_sets[29]: 1160  LLC: 4096
rand_sets[29]: 1160
Assign rand_sets[30]: 1852  LLC: 4096
rand_sets[30]: 1852
Assign rand_sets[31]: 3929  LLC: 4096
rand_sets[31]: 3929
Assign rand_sets[32]: 3818  LLC: 4096
rand_sets[32]: 3818
Assign rand_sets[33]: 1622  LLC: 4096
rand_sets[33]: 1622
Assign rand_sets[34]: 275  LLC: 4096
rand_sets[34]: 275
Assign rand_sets[35]: 2683  LLC: 4096
rand_sets[35]: 2683
Assign rand_sets[36]: 466  LLC: 4096
rand_sets[36]: 466
Assign rand_sets[37]: 3461  LLC: 4096
rand_sets[37]: 3461
Assign rand_sets[38]: 2465  LLC: 4096
rand_sets[38]: 2465
Assign rand_sets[39]: 2520  LLC: 4096
rand_sets[39]: 2520
Assign rand_sets[40]: 1340  LLC: 4096
rand_sets[40]: 1340
Assign rand_sets[41]: 2900  LLC: 4096
rand_sets[41]: 2900
Assign rand_sets[42]: 3413  LLC: 4096
rand_sets[42]: 3413
Assign rand_sets[43]: 47  LLC: 4096
rand_sets[43]: 47
Assign rand_sets[44]: 2871  LLC: 4096
rand_sets[44]: 2871
Assign rand_sets[45]: 2734  LLC: 4096
rand_sets[45]: 2734
Assign rand_sets[46]: 3685  LLC: 4096
rand_sets[46]: 3685
Assign rand_sets[47]: 1115  LLC: 4096
rand_sets[47]: 1115
Assign rand_sets[48]: 986  LLC: 4096
rand_sets[48]: 986
Assign rand_sets[49]: 258  LLC: 4096
rand_sets[49]: 258
Assign rand_sets[50]: 2681  LLC: 4096
rand_sets[50]: 2681
Assign rand_sets[51]: 920  LLC: 4096
rand_sets[51]: 920
Assign rand_sets[52]: 2252  LLC: 4096
rand_sets[52]: 2252
Assign rand_sets[53]: 227  LLC: 4096
rand_sets[53]: 227
Assign rand_sets[54]: 3866  LLC: 4096
rand_sets[54]: 3866
Assign rand_sets[55]: 2934  LLC: 4096
rand_sets[55]: 2934
Assign rand_sets[56]: 1422  LLC: 4096
rand_sets[56]: 1422
Assign rand_sets[57]: 2655  LLC: 4096
rand_sets[57]: 2655
Assign rand_sets[58]: 2265  LLC: 4096
rand_sets[58]: 2265
Assign rand_sets[59]: 1945  LLC: 4096
rand_sets[59]: 1945
Assign rand_sets[60]: 2191  LLC: 4096
rand_sets[60]: 2191
Assign rand_sets[61]: 1311  LLC: 4096
rand_sets[61]: 1311
Assign rand_sets[62]: 2367  LLC: 4096
rand_sets[62]: 2367
Assign rand_sets[63]: 3894  LLC: 4096
rand_sets[63]: 3894
Assign rand_sets[64]: 2286  LLC: 4096
rand_sets[64]: 2286
Assign rand_sets[65]: 67  LLC: 4096
rand_sets[65]: 67
Assign rand_sets[66]: 3960  LLC: 4096
rand_sets[66]: 3960
Assign rand_sets[67]: 3661  LLC: 4096
rand_sets[67]: 3661
Assign rand_sets[68]: 3341  LLC: 4096
rand_sets[68]: 3341
Assign rand_sets[69]: 1018  LLC: 4096
rand_sets[69]: 1018
Assign rand_sets[70]: 4030  LLC: 4096
rand_sets[70]: 4030
Assign rand_sets[71]: 1702  LLC: 4096
rand_sets[71]: 1702
Assign rand_sets[72]: 3546  LLC: 4096
rand_sets[72]: 3546
Assign rand_sets[73]: 228  LLC: 4096
rand_sets[73]: 228
Assign rand_sets[74]: 1414  LLC: 4096
rand_sets[74]: 1414
Assign rand_sets[75]: 1166  LLC: 4096
rand_sets[75]: 1166
Assign rand_sets[76]: 732  LLC: 4096
rand_sets[76]: 732
Assign rand_sets[77]: 2345  LLC: 4096
rand_sets[77]: 2345
Assign rand_sets[78]: 3181  LLC: 4096
rand_sets[78]: 3181
Assign rand_sets[79]: 846  LLC: 4096
rand_sets[79]: 846
Assign rand_sets[80]: 767  LLC: 4096
rand_sets[80]: 767
Assign rand_sets[81]: 3926  LLC: 4096
rand_sets[81]: 3926
Assign rand_sets[82]: 3041  LLC: 4096
rand_sets[82]: 3041
Assign rand_sets[83]: 3440  LLC: 4096
rand_sets[83]: 3440
Assign rand_sets[84]: 1568  LLC: 4096
rand_sets[84]: 1568
Assign rand_sets[85]: 1787  LLC: 4096
rand_sets[85]: 1787
Assign rand_sets[86]: 399  LLC: 4096
rand_sets[86]: 399
Assign rand_sets[87]: 1201  LLC: 4096
rand_sets[87]: 1201
Assign rand_sets[88]: 856  LLC: 4096
rand_sets[88]: 856
Assign rand_sets[89]: 773  LLC: 4096
rand_sets[89]: 773
Assign rand_sets[90]: 1680  LLC: 4096
rand_sets[90]: 1680
Assign rand_sets[91]: 3525  LLC: 4096
rand_sets[91]: 3525
Assign rand_sets[92]: 2057  LLC: 4096
rand_sets[92]: 2057
Assign rand_sets[93]: 3548  LLC: 4096
rand_sets[93]: 3548
Assign rand_sets[94]: 2899  LLC: 4096
rand_sets[94]: 2899
Assign rand_sets[95]: 3021  LLC: 4096
rand_sets[95]: 3021
Assign rand_sets[96]: 938  LLC: 4096
rand_sets[96]: 938
Assign rand_sets[97]: 1851  LLC: 4096
rand_sets[97]: 1851
Assign rand_sets[98]: 1608  LLC: 4096
rand_sets[98]: 1608
Assign rand_sets[99]: 1945  LLC: 4096
Assign rand_sets[99]: 1106  LLC: 4096
rand_sets[99]: 1106
Assign rand_sets[100]: 979  LLC: 4096
rand_sets[100]: 979
Assign rand_sets[101]: 338  LLC: 4096
rand_sets[101]: 338
Assign rand_sets[102]: 3741  LLC: 4096
rand_sets[102]: 3741
Assign rand_sets[103]: 6  LLC: 4096
rand_sets[103]: 6
Assign rand_sets[104]: 2719  LLC: 4096
rand_sets[104]: 2719
Assign rand_sets[105]: 490  LLC: 4096
rand_sets[105]: 490
Assign rand_sets[106]: 1461  LLC: 4096
rand_sets[106]: 1461
Assign rand_sets[107]: 1730  LLC: 4096
rand_sets[107]: 1730
Assign rand_sets[108]: 3078  LLC: 4096
rand_sets[108]: 3078
Assign rand_sets[109]: 2067  LLC: 4096
rand_sets[109]: 2067
Assign rand_sets[110]: 2968  LLC: 4096
rand_sets[110]: 2968
Assign rand_sets[111]: 2377  LLC: 4096
rand_sets[111]: 2377
Assign rand_sets[112]: 3762  LLC: 4096
rand_sets[112]: 3762
Assign rand_sets[113]: 1  LLC: 4096
rand_sets[113]: 1
Assign rand_sets[114]: 1822  LLC: 4096
rand_sets[114]: 1822
Assign rand_sets[115]: 172  LLC: 4096
rand_sets[115]: 172
Assign rand_sets[116]: 3634  LLC: 4096
rand_sets[116]: 3634
Assign rand_sets[117]: 648  LLC: 4096
rand_sets[117]: 648
Assign rand_sets[118]: 3377  LLC: 4096
rand_sets[118]: 3377
Assign rand_sets[119]: 668  LLC: 4096
rand_sets[119]: 668
Assign rand_sets[120]: 1874  LLC: 4096
rand_sets[120]: 1874
Assign rand_sets[121]: 70  LLC: 4096
rand_sets[121]: 70
Assign rand_sets[122]: 2709  LLC: 4096
rand_sets[122]: 2709
Assign rand_sets[123]: 3697  LLC: 4096
rand_sets[123]: 3697
Assign rand_sets[124]: 3638  LLC: 4096
rand_sets[124]: 3638
Assign rand_sets[125]: 911  LLC: 4096
rand_sets[125]: 911
Assign rand_sets[126]: 3415  LLC: 4096
rand_sets[126]: 3415
Assign rand_sets[127]: 3830  LLC: 4096
rand_sets[127]: 3830
Assign rand_sets[128]: 2617  LLC: 4096
rand_sets[128]: 2617
Assign rand_sets[129]: 1309  LLC: 4096
rand_sets[129]: 1309
Assign rand_sets[130]: 2582  LLC: 4096
rand_sets[130]: 2582
Assign rand_sets[131]: 3322  LLC: 4096
rand_sets[131]: 3322
Assign rand_sets[132]: 904  LLC: 4096
rand_sets[132]: 904
Assign rand_sets[133]: 3956  LLC: 4096
rand_sets[133]: 3956
Assign rand_sets[134]: 2293  LLC: 4096
rand_sets[134]: 2293
Assign rand_sets[135]: 3736  LLC: 4096
rand_sets[135]: 3736
Assign rand_sets[136]: 3708  LLC: 4096
rand_sets[136]: 3708
Assign rand_sets[137]: 3351  LLC: 4096
rand_sets[137]: 3351
Assign rand_sets[138]: 1628  LLC: 4096
rand_sets[138]: 1628
Assign rand_sets[139]: 3905  LLC: 4096
rand_sets[139]: 3905
Assign rand_sets[140]: 187  LLC: 4096
rand_sets[140]: 187
Assign rand_sets[141]: 3437  LLC: 4096
rand_sets[141]: 3437
Assign rand_sets[142]: 881  LLC: 4096
rand_sets[142]: 881
Assign rand_sets[143]: 3214  LLC: 4096
rand_sets[143]: 3214
Assign rand_sets[144]: 3087  LLC: 4096
rand_sets[144]: 3087
Assign rand_sets[145]: 3184  LLC: 4096
rand_sets[145]: 3184
Assign rand_sets[146]: 601  LLC: 4096
rand_sets[146]: 601
Assign rand_sets[147]: 967  LLC: 4096
rand_sets[147]: 967
Assign rand_sets[148]: 2817  LLC: 4096
rand_sets[148]: 2817
Assign rand_sets[149]: 2331  LLC: 4096
rand_sets[149]: 2331
Assign rand_sets[150]: 2607  LLC: 4096
rand_sets[150]: 2607
Assign rand_sets[151]: 3123  LLC: 4096
rand_sets[151]: 3123
Assign rand_sets[152]: 2877  LLC: 4096
rand_sets[152]: 2877
Assign rand_sets[153]: 1681  LLC: 4096
rand_sets[153]: 1681
Assign rand_sets[154]: 3776  LLC: 4096
rand_sets[154]: 3776
Assign rand_sets[155]: 2589  LLC: 4096
rand_sets[155]: 2589
Assign rand_sets[156]: 421  LLC: 4096
rand_sets[156]: 421
Assign rand_sets[157]: 1037  LLC: 4096
rand_sets[157]: 1037
Assign rand_sets[158]: 2061  LLC: 4096
rand_sets[158]: 2061
Assign rand_sets[159]: 1707  LLC: 4096
rand_sets[159]: 1707
Assign rand_sets[160]: 1075  LLC: 4096
rand_sets[160]: 1075
Assign rand_sets[161]: 1933  LLC: 4096
rand_sets[161]: 1933
Assign rand_sets[162]: 1406  LLC: 4096
rand_sets[162]: 1406
Assign rand_sets[163]: 2142  LLC: 4096
rand_sets[163]: 2142
Assign rand_sets[164]: 1423  LLC: 4096
rand_sets[164]: 1423
Assign rand_sets[165]: 1854  LLC: 4096
rand_sets[165]: 1854
Assign rand_sets[166]: 2278  LLC: 4096
rand_sets[166]: 2278
Assign rand_sets[167]: 2152  LLC: 4096
rand_sets[167]: 2152
Assign rand_sets[168]: 3700  LLC: 4096
rand_sets[168]: 3700
Assign rand_sets[169]: 3494  LLC: 4096
rand_sets[169]: 3494
Assign rand_sets[170]: 1338  LLC: 4096
rand_sets[170]: 1338
Assign rand_sets[171]: 177  LLC: 4096
rand_sets[171]: 177
Assign rand_sets[172]: 195  LLC: 4096
rand_sets[172]: 195
Assign rand_sets[173]: 1171  LLC: 4096
rand_sets[173]: 1171
Assign rand_sets[174]: 3345  LLC: 4096
rand_sets[174]: 3345
Assign rand_sets[175]: 3752  LLC: 4096
rand_sets[175]: 3752
Assign rand_sets[176]: 100  LLC: 4096
rand_sets[176]: 100
Assign rand_sets[177]: 711  LLC: 4096
rand_sets[177]: 711
Assign rand_sets[178]: 3291  LLC: 4096
rand_sets[178]: 3291
Assign rand_sets[179]: 1738  LLC: 4096
rand_sets[179]: 1738
Assign rand_sets[180]: 3552  LLC: 4096
rand_sets[180]: 3552
Assign rand_sets[181]: 2144  LLC: 4096
rand_sets[181]: 2144
Assign rand_sets[182]: 3297  LLC: 4096
rand_sets[182]: 3297
Assign rand_sets[183]: 1267  LLC: 4096
rand_sets[183]: 1267
Assign rand_sets[184]: 3775  LLC: 4096
rand_sets[184]: 3775
Assign rand_sets[185]: 1545  LLC: 4096
rand_sets[185]: 1545
Assign rand_sets[186]: 1792  LLC: 4096
rand_sets[186]: 1792
Assign rand_sets[187]: 1383  LLC: 4096
rand_sets[187]: 1383
Assign rand_sets[188]: 4002  LLC: 4096
rand_sets[188]: 4002
Assign rand_sets[189]: 2787  LLC: 4096
rand_sets[189]: 2787
Assign rand_sets[190]: 3109  LLC: 4096
rand_sets[190]: 3109
Assign rand_sets[191]: 672  LLC: 4096
rand_sets[191]: 672
Assign rand_sets[192]: 3105  LLC: 4096
rand_sets[192]: 3105
Assign rand_sets[193]: 1329  LLC: 4096
rand_sets[193]: 1329
Assign rand_sets[194]: 1415  LLC: 4096
rand_sets[194]: 1415
Assign rand_sets[195]: 981  LLC: 4096
rand_sets[195]: 981
Assign rand_sets[196]: 2146  LLC: 4096
rand_sets[196]: 2146
Assign rand_sets[197]: 453  LLC: 4096
rand_sets[197]: 453
Assign rand_sets[198]: 3496  LLC: 4096
rand_sets[198]: 3496
Assign rand_sets[199]: 2127  LLC: 4096
rand_sets[199]: 2127
Assign rand_sets[200]: 2174  LLC: 4096
rand_sets[200]: 2174
Assign rand_sets[201]: 1582  LLC: 4096
rand_sets[201]: 1582
Assign rand_sets[202]: 3337  LLC: 4096
rand_sets[202]: 3337
Assign rand_sets[203]: 2923  LLC: 4096
rand_sets[203]: 2923
Assign rand_sets[204]: 404  LLC: 4096
rand_sets[204]: 404
Assign rand_sets[205]: 415  LLC: 4096
rand_sets[205]: 415
Assign rand_sets[206]: 1712  LLC: 4096
rand_sets[206]: 1712
Assign rand_sets[207]: 3437  LLC: 4096
Assign rand_sets[207]: 169  LLC: 4096
rand_sets[207]: 169
Assign rand_sets[208]: 158  LLC: 4096
rand_sets[208]: 158
Assign rand_sets[209]: 90  LLC: 4096
rand_sets[209]: 90
Assign rand_sets[210]: 3339  LLC: 4096
rand_sets[210]: 3339
Assign rand_sets[211]: 838  LLC: 4096
rand_sets[211]: 838
Assign rand_sets[212]: 3952  LLC: 4096
rand_sets[212]: 3952
Assign rand_sets[213]: 640  LLC: 4096
rand_sets[213]: 640
Assign rand_sets[214]: 3510  LLC: 4096
rand_sets[214]: 3510
Assign rand_sets[215]: 3535  LLC: 4096
rand_sets[215]: 3535
Assign rand_sets[216]: 1863  LLC: 4096
rand_sets[216]: 1863
Assign rand_sets[217]: 3084  LLC: 4096
rand_sets[217]: 3084
Assign rand_sets[218]: 1702  LLC: 4096
Assign rand_sets[218]: 2981  LLC: 4096
rand_sets[218]: 2981
Assign rand_sets[219]: 554  LLC: 4096
rand_sets[219]: 554
Assign rand_sets[220]: 1496  LLC: 4096
rand_sets[220]: 1496
Assign rand_sets[221]: 1708  LLC: 4096
rand_sets[221]: 1708
Assign rand_sets[222]: 1275  LLC: 4096
rand_sets[222]: 1275
Assign rand_sets[223]: 416  LLC: 4096
rand_sets[223]: 416
Assign rand_sets[224]: 491  LLC: 4096
rand_sets[224]: 491
Assign rand_sets[225]: 2231  LLC: 4096
rand_sets[225]: 2231
Assign rand_sets[226]: 1657  LLC: 4096
rand_sets[226]: 1657
Assign rand_sets[227]: 1060  LLC: 4096
rand_sets[227]: 1060
Assign rand_sets[228]: 626  LLC: 4096
rand_sets[228]: 626
Assign rand_sets[229]: 1315  LLC: 4096
rand_sets[229]: 1315
Assign rand_sets[230]: 1682  LLC: 4096
rand_sets[230]: 1682
Assign rand_sets[231]: 1352  LLC: 4096
rand_sets[231]: 1352
Assign rand_sets[232]: 1152  LLC: 4096
rand_sets[232]: 1152
Assign rand_sets[233]: 3013  LLC: 4096
rand_sets[233]: 3013
Assign rand_sets[234]: 1190  LLC: 4096
rand_sets[234]: 1190
Assign rand_sets[235]: 1191  LLC: 4096
rand_sets[235]: 1191
Assign rand_sets[236]: 2693  LLC: 4096
rand_sets[236]: 2693
Assign rand_sets[237]: 695  LLC: 4096
rand_sets[237]: 695
Assign rand_sets[238]: 3543  LLC: 4096
rand_sets[238]: 3543
Assign rand_sets[239]: 3980  LLC: 4096
rand_sets[239]: 3980
Assign rand_sets[240]: 656  LLC: 4096
rand_sets[240]: 656
Assign rand_sets[241]: 1508  LLC: 4096
rand_sets[241]: 1508
Assign rand_sets[242]: 939  LLC: 4096
rand_sets[242]: 939
Assign rand_sets[243]: 2403  LLC: 4096
rand_sets[243]: 2403
Assign rand_sets[244]: 1092  LLC: 4096
rand_sets[244]: 1092
Assign rand_sets[245]: 850  LLC: 4096
rand_sets[245]: 850
Assign rand_sets[246]: 102  LLC: 4096
rand_sets[246]: 102
Assign rand_sets[247]: 3811  LLC: 4096
rand_sets[247]: 3811
Assign rand_sets[248]: 668  LLC: 4096
Assign rand_sets[248]: 51  LLC: 4096
rand_sets[248]: 51
Assign rand_sets[249]: 1317  LLC: 4096
rand_sets[249]: 1317
Assign rand_sets[250]: 4089  LLC: 4096
rand_sets[250]: 4089
Assign rand_sets[251]: 3422  LLC: 4096
rand_sets[251]: 3422
Assign rand_sets[252]: 682  LLC: 4096
rand_sets[252]: 682
Assign rand_sets[253]: 3514  LLC: 4096
rand_sets[253]: 3514
Assign rand_sets[254]: 3187  LLC: 4096
rand_sets[254]: 3187
Assign rand_sets[255]: 3680  LLC: 4096
rand_sets[255]: 3680

Warmup complete CPU 0 instructions: 1732389 cycles: 560600 (Simulation time: 0 hr 0 min 18 sec) 
Warmup complete CPU 1 instructions: 1241467 cycles: 560600 (Simulation time: 0 hr 0 min 18 sec) 
Warmup complete CPU 2 instructions: 1977079 cycles: 560600 (Simulation time: 0 hr 0 min 18 sec) 
Warmup complete CPU 3 instructions: 1000002 cycles: 560600 (Simulation time: 0 hr 0 min 18 sec) 

Heartbeat CPU 1 instructions: 10000002 cycles: 8524993 heartbeat IPC: 1.17302 cumulative IPC: 1.09971 (Simulation time: 24 hr 0 min 49 sec) 
Finished CPU 1 instructions: 10000000 cycles: 8993959 cumulative IPC: 1.11186 (Simulation time: 24 hr 0 min 58 sec) 
Heartbeat CPU 0 instructions: 10000000 cycles: 13993148 heartbeat IPC: 0.714635 cumulative IPC: 0.615491 (Simulation time: 24 hr 1 min 32 sec) 
Finished CPU 0 instructions: 10000002 cycles: 16281720 cumulative IPC: 0.614186 (Simulation time: 24 hr 1 min 54 sec) 
Heartbeat CPU 1 instructions: 20000001 cycles: 17266769 heartbeat IPC: 1.14393 cumulative IPC: 1.12285 (Simulation time: 24 hr 1 min 57 sec) 
Heartbeat CPU 2 instructions: 10000002 cycles: 21840694 heartbeat IPC: 0.457861 cumulative IPC: 0.377015 (Simulation time: 24 hr 2 min 31 sec) 
Heartbeat CPU 1 instructions: 30000000 cycles: 26011518 heartbeat IPC: 1.14354 cumulative IPC: 1.12996 (Simulation time: 24 hr 3 min 3 sec) 
Finished CPU 2 instructions: 10000001 cycles: 27075179 cumulative IPC: 0.369342 (Simulation time: 24 hr 3 min 18 sec) 
Heartbeat CPU 0 instructions: 20000001 cycles: 30733326 heartbeat IPC: 0.597365 cumulative IPC: 0.605435 (Simulation time: 24 hr 3 min 43 sec) 
Heartbeat CPU 1 instructions: 40000000 cycles: 34736530 heartbeat IPC: 1.14613 cumulative IPC: 1.13409 (Simulation time: 24 hr 4 min 18 sec) 
Heartbeat CPU 3 instructions: 10000001 cycles: 42994184 heartbeat IPC: 0.23259 cumulative IPC: 0.212096 (Simulation time: 24 hr 5 min 28 sec) 
Heartbeat CPU 1 instructions: 50000000 cycles: 43801310 heartbeat IPC: 1.10317 cumulative IPC: 1.12761 (Simulation time: 24 hr 5 min 39 sec) 
Heartbeat CPU 2 instructions: 20000002 cycles: 45987956 heartbeat IPC: 0.414126 cumulative IPC: 0.396742 (Simulation time: 24 hr 5 min 59 sec) 
Finished CPU 3 instructions: 10000003 cycles: 46798669 cumulative IPC: 0.213681 (Simulation time: 24 hr 6 min 13 sec) 

ChampSim completed all CPUs

Total Simulation Statistics (not including warmup)

CPU 0 cumulative IPC: 0.595164 instructions: 27852878 cycles: 46798669
L1D TOTAL     ACCESS:    6499001  HIT:    5510446  MISS:     988555
L1D LOAD      ACCESS:    2357467  HIT:    2207685  MISS:     149782
L1D RFO       ACCESS:    4141534  HIT:    3302761  MISS:     838773
L1D PREFETCH  ACCESS:          0  HIT:          0  MISS:          0
L1D WRITEBACK ACCESS:          0  HIT:          0  MISS:          0
L1I TOTAL     ACCESS:    4264037  HIT:    4264037  MISS:          0
L1I LOAD      ACCESS:    4264037  HIT:    4264037  MISS:          0
L1I RFO       ACCESS:          0  HIT:          0  MISS:          0
L1I PREFETCH  ACCESS:          0  HIT:          0  MISS:          0
L1I WRITEBACK ACCESS:          0  HIT:          0  MISS:          0
L2C TOTAL     ACCESS:    1827330  HIT:    1219123  MISS:     608207
L2C LOAD      ACCESS:     149782  HIT:          0  MISS:     149782
L2C RFO       ACCESS:     838773  HIT:     380354  MISS:     458419
L2C PREFETCH  ACCESS:          0  HIT:          0  MISS:          0
L2C WRITEBACK ACCESS:     838775  HIT:     838769  MISS:          6
LLC TOTAL     ACCESS:    1066288  HIT:     459920  MISS:     606368
LLC LOAD      ACCESS:     149782  HIT:          0  MISS:     149782
LLC RFO       ACCESS:     458420  HIT:       9080  MISS:     449340
LLC PREFETCH  ACCESS:          0  HIT:          0  MISS:          0
LLC WRITEBACK ACCESS:     458086  HIT:     450840  MISS:       7246

CPU 1 cumulative IPC: 1.13167 instructions: 52960862 cycles: 46798669
L1D TOTAL     ACCESS:    3736260  HIT:    1085617  MISS:    2650643
L1D LOAD      ACCESS:     420227  HIT:     387629  MISS:      32598
L1D RFO       ACCESS:    3316033  HIT:     697988  MISS:    2618045
L1D PREFETCH  ACCESS:          0  HIT:          0  MISS:          0
L1D WRITEBACK ACCESS:          0  HIT:          0  MISS:          0
L1I TOTAL     ACCESS:   10095095  HIT:   10092432  MISS:       2663
L1I LOAD      ACCESS:   10095095  HIT:   10092432  MISS:       2663
L1I RFO       ACCESS:          0  HIT:          0  MISS:          0
L1I PREFETCH  ACCESS:          0  HIT:          0  MISS:          0
L1I WRITEBACK ACCESS:          0  HIT:          0  MISS:          0
L2C TOTAL     ACCESS:    5280198  HIT:    3499109  MISS:    1781089
L2C LOAD      ACCESS:      35261  HIT:       6378  MISS:      28883
L2C RFO       ACCESS:    2618046  HIT:     865840  MISS:    1752206
L2C PREFETCH  ACCESS:          0  HIT:          0  MISS:          0
L2C WRITEBACK ACCESS:    2626891  HIT:    2626891  MISS:          0
LLC TOTAL     ACCESS:    3538836  HIT:    3525930  MISS:      12906
LLC LOAD      ACCESS:      28883  HIT:      21125  MISS:       7758
LLC RFO       ACCESS:    1752206  HIT:    1748172  MISS:       4034
LLC PREFETCH  ACCESS:          0  HIT:          0  MISS:          0
LLC WRITEBACK ACCESS:    1757747  HIT:    1756633  MISS:       1114

CPU 2 cumulative IPC: 0.413552 instructions: 19353681 cycles: 46798669
L1D TOTAL     ACCESS:    2780937  HIT:    2346623  MISS:     434314
L1D LOAD      ACCESS:    1775450  HIT:    1362800  MISS:     412650
L1D RFO       ACCESS:    1005487  HIT:     983823  MISS:      21664
L1D PREFETCH  ACCESS:          0  HIT:          0  MISS:          0
L1D WRITEBACK ACCESS:          0  HIT:          0  MISS:          0
L1I TOTAL     ACCESS:    2690534  HIT:    2690409  MISS:        125
L1I LOAD      ACCESS:    2690534  HIT:    2690409  MISS:        125
L1I RFO       ACCESS:          0  HIT:          0  MISS:          0
L1I PREFETCH  ACCESS:          0  HIT:          0  MISS:          0
L1I WRITEBACK ACCESS:          0  HIT:          0  MISS:          0
L2C TOTAL     ACCESS:     458574  HIT:     213085  MISS:     245489
L2C LOAD      ACCESS:     412773  HIT:     180041  MISS:     232732
L2C RFO       ACCESS:      21664  HIT:       8907  MISS:      12757
L2C PREFETCH  ACCESS:          0  HIT:          0  MISS:          0
L2C WRITEBACK ACCESS:      24137  HIT:      24137  MISS:          0
LLC TOTAL     ACCESS:     256228  HIT:      69234  MISS:     186994
LLC LOAD      ACCESS:     232732  HIT:      60196  MISS:     172536
LLC RFO       ACCESS:      12757  HIT:        104  MISS:      12653
LLC PREFETCH  ACCESS:          0  HIT:          0  MISS:          0
LLC WRITEBACK ACCESS:      10739  HIT:       8934  MISS:       1805

CPU 3 cumulative IPC: 0.213681 instructions: 10000003 cycles: 46798669
L1D TOTAL     ACCESS:    4181782  HIT:    4001762  MISS:     180020
L1D LOAD      ACCESS:    2413014  HIT:    2257082  MISS:     155932
L1D RFO       ACCESS:    1768768  HIT:    1744680  MISS:      24088
L1D PREFETCH  ACCESS:          0  HIT:          0  MISS:          0
L1D WRITEBACK ACCESS:          0  HIT:          0  MISS:          0
L1I TOTAL     ACCESS:    1778317  HIT:    1774534  MISS:       3783
L1I LOAD      ACCESS:    1778317  HIT:    1774534  MISS:       3783
L1I RFO       ACCESS:          0  HIT:          0  MISS:          0
L1I PREFETCH  ACCESS:          0  HIT:          0  MISS:          0
L1I WRITEBACK ACCESS:          0  HIT:          0  MISS:          0
L2C TOTAL     ACCESS:     273735  HIT:     155980  MISS:     117755
L2C LOAD      ACCESS:     159713  HIT:      57008  MISS:     102705
L2C RFO       ACCESS:      24087  HIT:       9119  MISS:      14968
L2C PREFETCH  ACCESS:          0  HIT:          0  MISS:          0
L2C WRITEBACK ACCESS:      89935  HIT:      89853  MISS:         82
LLC TOTAL     ACCESS:     176139  HIT:      26863  MISS:     149276
LLC LOAD      ACCESS:     102705  HIT:       6903  MISS:      95802
LLC RFO       ACCESS:      14968  HIT:       2229  MISS:      12739
LLC PREFETCH  ACCESS:          0  HIT:          0  MISS:          0
LLC WRITEBACK ACCESS:      58466  HIT:      17731  MISS:      40735

Region of Interest Statistics

CPU 0 cumulative IPC: 0.614186 instructions: 10000002 cycles: 16281720
L1D TOTAL     ACCESS:    2331491  HIT:    1978725  MISS:     352766
L1D LOAD      ACCESS:     846254  HIT:     792804  MISS:      53450
L1D RFO       ACCESS:    1485237  HIT:    1185921  MISS:     299316
L1D PREFETCH  ACCESS:          0  HIT:          0  MISS:          0
L1D WRITEBACK ACCESS:          0  HIT:          0  MISS:          0
L1D PREFETCH  REQUESTED:          0  ISSUED:          0  USEFUL:          0  USELESS:          0
L1D AVERAGE MISS LATENCY: 846.336 cycles
L1I TOTAL     ACCESS:    1530187  HIT:    1530187  MISS:          0
L1I LOAD      ACCESS:    1530187  HIT:    1530187  MISS:          0
L1I RFO       ACCESS:          0  HIT:          0  MISS:          0
L1I PREFETCH  ACCESS:          0  HIT:          0  MISS:          0
L1I WRITEBACK ACCESS:          0  HIT:          0  MISS:          0
L1I PREFETCH  REQUESTED:          0  ISSUED:          0  USEFUL:          0  USELESS:          0
L1I AVERAGE MISS LATENCY: -nan cycles
L2C TOTAL     ACCESS:     652085  HIT:     435197  MISS:     216888
L2C LOAD      ACCESS:      53450  HIT:          0  MISS:      53450
L2C RFO       ACCESS:     299317  HIT:     135879  MISS:     163438
L2C PREFETCH  ACCESS:          0  HIT:          0  MISS:          0
L2C WRITEBACK ACCESS:     299318  HIT:     299318  MISS:          0
L2C PREFETCH  REQUESTED:          0  ISSUED:          0  USEFUL:          0  USELESS:          0
L2C AVERAGE MISS LATENCY: 1298.02 cycles
LLC TOTAL     ACCESS:     380181  HIT:     163789  MISS:     216392
LLC LOAD      ACCESS:      53450  HIT:          0  MISS:      53450
LLC RFO       ACCESS:     163438  HIT:       3091  MISS:     160347
LLC PREFETCH  ACCESS:          0  HIT:          0  MISS:          0
LLC WRITEBACK ACCESS:     163293  HIT:     160698  MISS:       2595
LLC PREFETCH  REQUESTED:          0  ISSUED:          0  USEFUL:          0  USELESS:          0
LLC AVERAGE MISS LATENCY: 1820.74 cycles
Major fault: 0 Minor fault: 8117

CPU 1 cumulative IPC: 1.11186 instructions: 10000000 cycles: 8993959
L1D TOTAL     ACCESS:     727473  HIT:     229625  MISS:     497848
L1D LOAD      ACCESS:      92920  HIT:      86398  MISS:       6522
L1D RFO       ACCESS:     634553  HIT:     143227  MISS:     491326
L1D PREFETCH  ACCESS:          0  HIT:          0  MISS:          0
L1D WRITEBACK ACCESS:          0  HIT:          0  MISS:          0
L1D PREFETCH  REQUESTED:          0  ISSUED:          0  USEFUL:          0  USELESS:          0
L1D AVERAGE MISS LATENCY: 196.573 cycles
L1I TOTAL     ACCESS:    1906066  HIT:    1905514  MISS:        552
L1I LOAD      ACCESS:    1906066  HIT:    1905514  MISS:        552
L1I RFO       ACCESS:          0  HIT:          0  MISS:          0
L1I PREFETCH  ACCESS:          0  HIT:          0  MISS:          0
L1I WRITEBACK ACCESS:          0  HIT:          0  MISS:          0
L1I PREFETCH  REQUESTED:          0  ISSUED:          0  USEFUL:          0  USELESS:          0
L1I AVERAGE MISS LATENCY: 638.382 cycles
L2C TOTAL     ACCESS:     991373  HIT:     656231  MISS:     335142
L2C LOAD      ACCESS:       7074  HIT:       1220  MISS:       5854
L2C RFO       ACCESS:     491326  HIT:     162038  MISS:     329288
L2C PREFETCH  ACCESS:          0  HIT:          0  MISS:          0
L2C WRITEBACK ACCESS:     492973  HIT:     492973  MISS:          0
L2C PREFETCH  REQUESTED:          0  ISSUED:          0  USEFUL:          0  USELESS:          0
L2C AVERAGE MISS LATENCY: 174.288 cycles
LLC TOTAL     ACCESS:     665432  HIT:     661807  MISS:       3625
LLC LOAD      ACCESS:       5854  HIT:       4002  MISS:       1852
LLC RFO       ACCESS:     329288  HIT:     327739  MISS:       1549
LLC PREFETCH  ACCESS:          0  HIT:          0  MISS:          0
LLC WRITEBACK ACCESS:     330290  HIT:     330066  MISS:        224
LLC PREFETCH  REQUESTED:          0  ISSUED:          0  USEFUL:          0  USELESS:          0
LLC AVERAGE MISS LATENCY: 108688 cycles
Major fault: 0 Minor fault: 907

CPU 2 cumulative IPC: 0.369342 instructions: 10000001 cycles: 27075179
L1D TOTAL     ACCESS:    1227313  HIT:     971633  MISS:     255680
L1D LOAD      ACCESS:     799918  HIT:     556114  MISS:     243804
L1D RFO       ACCESS:     427395  HIT:     415519  MISS:      11876
L1D PREFETCH  ACCESS:          0  HIT:          0  MISS:          0
L1D WRITEBACK ACCESS:          0  HIT:          0  MISS:          0
L1D PREFETCH  REQUESTED:          0  ISSUED:          0  USEFUL:          0  USELESS:          0
L1D AVERAGE MISS LATENCY: 371.825 cycles
L1I TOTAL     ACCESS:    1364559  HIT:    1364559  MISS:          0
L1I LOAD      ACCESS:    1364559  HIT:    1364559  MISS:          0
L1I RFO       ACCESS:          0  HIT:          0  MISS:          0
L1I PREFETCH  ACCESS:          0  HIT:          0  MISS:          0
L1I WRITEBACK ACCESS:          0  HIT:          0  MISS:          0
L1I PREFETCH  REQUESTED:          0  ISSUED:          0  USEFUL:          0  USELESS:          0
L1I AVERAGE MISS LATENCY: inf cycles
L2C TOTAL     ACCESS:     269445  HIT:     118187  MISS:     151258
L2C LOAD      ACCESS:     243804  HIT:      99204  MISS:     144600
L2C RFO       ACCESS:      11876  HIT:       5218  MISS:       6658
L2C PREFETCH  ACCESS:          0  HIT:          0  MISS:          0
L2C WRITEBACK ACCESS:      13765  HIT:      13765  MISS:          0
L2C PREFETCH  REQUESTED:          0  ISSUED:          0  USEFUL:          0  USELESS:          0
L2C AVERAGE MISS LATENCY: 585.767 cycles
LLC TOTAL     ACCESS:     157720  HIT:      41631  MISS:     116089
LLC LOAD      ACCESS:     144600  HIT:      36342  MISS:     108258
LLC RFO       ACCESS:       6658  HIT:         17  MISS:       6641
LLC PREFETCH  ACCESS:          0  HIT:          0  MISS:          0
LLC WRITEBACK ACCESS:       6462  HIT:       5272  MISS:       1190
LLC PREFETCH  REQUESTED:          0  ISSUED:          0  USEFUL:          0  USELESS:          0
LLC AVERAGE MISS LATENCY: 3393.88 cycles
Major fault: 0 Minor fault: 906

CPU 3 cumulative IPC: 0.213681 instructions: 10000003 cycles: 46798669
L1D TOTAL     ACCESS:    4181782  HIT:    4001762  MISS:     180020
L1D LOAD      ACCESS:    2413014  HIT:    2257082  MISS:     155932
L1D RFO       ACCESS:    1768768  HIT:    1744680  MISS:      24088
L1D PREFETCH  ACCESS:          0  HIT:          0  MISS:          0
L1D WRITEBACK ACCESS:          0  HIT:          0  MISS:          0
L1D PREFETCH  REQUESTED:          0  ISSUED:          0  USEFUL:          0  USELESS:          0
L1D AVERAGE MISS LATENCY: 288.212 cycles
L1I TOTAL     ACCESS:    1778317  HIT:    1774534  MISS:       3783
L1I LOAD      ACCESS:    1778317  HIT:    1774534  MISS:       3783
L1I RFO       ACCESS:          0  HIT:          0  MISS:          0
L1I PREFETCH  ACCESS:          0  HIT:          0  MISS:          0
L1I WRITEBACK ACCESS:          0  HIT:          0  MISS:          0
L1I PREFETCH  REQUESTED:          0  ISSUED:          0  USEFUL:          0  USELESS:          0
L1I AVERAGE MISS LATENCY: 66.4787 cycles
L2C TOTAL     ACCESS:     273735  HIT:     155980  MISS:     117755
L2C LOAD      ACCESS:     159713  HIT:      57008  MISS:     102705
L2C RFO       ACCESS:      24087  HIT:       9119  MISS:      14968
L2C PREFETCH  ACCESS:          0  HIT:          0  MISS:          0
L2C WRITEBACK ACCESS:      89935  HIT:      89853  MISS:         82
L2C PREFETCH  REQUESTED:          0  ISSUED:          0  USEFUL:          0  USELESS:          0
L2C AVERAGE MISS LATENCY: 412.25 cycles
LLC TOTAL     ACCESS:     176139  HIT:      26863  MISS:     149276
LLC LOAD      ACCESS:     102705  HIT:       6903  MISS:      95802
LLC RFO       ACCESS:      14968  HIT:       2229  MISS:      12739
LLC PREFETCH  ACCESS:          0  HIT:          0  MISS:          0
LLC WRITEBACK ACCESS:      58466  HIT:      17731  MISS:      40735
LLC PREFETCH  REQUESTED:          0  ISSUED:          0  USEFUL:          0  USELESS:          0
LLC AVERAGE MISS LATENCY: 2639.36 cycles
Major fault: 0 Minor fault: 20675

DRAM Statistics
 CHANNEL 0
 RQ ROW_BUFFER_HIT:     143087  ROW_BUFFER_MISS:     761226
 DBUS_CONGESTED:     742927
 WQ ROW_BUFFER_HIT:      45061  ROW_BUFFER_MISS:     462793  FULL:          0

 AVG_CONGESTED_CYCLE: 6

CPU 0 Branch Prediction Accuracy: 99.6992% MPKI: 0.0313098 Average ROB Occupancy at Mispredict: 153.406

Branch types
NOT_BRANCH: 27555319 98.9317%
BRANCH_DIRECT_JUMP: 996 0.00357593%
BRANCH_INDIRECT: 0 0%
BRANCH_CONDITIONAL: 296567 1.06476%
BRANCH_DIRECT_CALL: 0 0%
BRANCH_INDIRECT_CALL: 0 0%
BRANCH_RETURN: 0 0%
BRANCH_OTHER: 0 0%


CPU 1 Branch Prediction Accuracy: 99.6407% MPKI: 0.70168 Average ROB Occupancy at Mispredict: 45.6936

Branch types
NOT_BRANCH: 42572032 80.3839%
BRANCH_DIRECT_JUMP: 53177 0.100408%
BRANCH_INDIRECT: 13913 0.0262703%
BRANCH_CONDITIONAL: 10223065 19.3031%
BRANCH_DIRECT_CALL: 48787 0.092119%
BRANCH_INDIRECT_CALL: 721 0.00136138%
BRANCH_RETURN: 49506 0.0934766%
BRANCH_OTHER: 0 0%


CPU 2 Branch Prediction Accuracy: 95.8926% MPKI: 6.24138 Average ROB Occupancy at Mispredict: 56.7524

Branch types
NOT_BRANCH: 16264213 84.0368%
BRANCH_DIRECT_JUMP: 91461 0.472577%
BRANCH_INDIRECT: 3 1.55009e-05%
BRANCH_CONDITIONAL: 2996173 15.4812%
BRANCH_DIRECT_CALL: 845 0.00436609%
BRANCH_INDIRECT_CALL: 0 0%
BRANCH_RETURN: 844 0.00436093%
BRANCH_OTHER: 0 0%


CPU 3 Branch Prediction Accuracy: 95.7633% MPKI: 8.7938 Average ROB Occupancy at Mispredict: 79.6739

Branch types
NOT_BRANCH: 7924039 79.2404%
BRANCH_DIRECT_JUMP: 112889 1.12889%
BRANCH_INDIRECT: 33554 0.33554%
BRANCH_CONDITIONAL: 1335991 13.3599%
BRANCH_DIRECT_CALL: 177453 1.77453%
BRANCH_INDIRECT_CALL: 119145 1.19145%
BRANCH_RETURN: 296598 2.96598%
BRANCH_OTHER: 0 0%

