
*** ChampSim Multicore Out-of-Order Simulator ***

Warmup Instructions: 1000000
Simulation Instructions: 10000000
Number of CPUs: 4
LLC sets: 4096
LLC ways: 16
Off-chip DRAM Size: 4096 MB Channels: 1 Width: 64-bit Data Rate: 3200 MT/s

CPU 0 runs /mnt/c/Users/dadir/Downloads/Lab-Final/ChampSim-master/dpc3_traces/619.lbm_s-3766B.champsimtrace.xz
CPU 1 runs /mnt/c/Users/dadir/Downloads/Lab-Final/ChampSim-master/dpc3_traces/403.gcc-16B.champsimtrace.xz
CPU 2 runs /mnt/c/Users/dadir/Downloads/Lab-Final/ChampSim-master/dpc3_traces/401.bzip2-277B.champsimtrace.xz
CPU 3 runs /mnt/c/Users/dadir/Downloads/Lab-Final/ChampSim-master/dpc3_traces/620.omnetpp_s-874B.champsimtrace.xz
CPU 0 Bimodal branch predictor
CPU 1 Bimodal branch predictor
CPU 2 Bimodal branch predictor
CPU 3 Bimodal branch predictor

Warmup complete CPU 0 instructions: 1732449 cycles: 560617 (Simulation time: 0 hr 0 min 16 sec) 
Warmup complete CPU 1 instructions: 1241508 cycles: 560617 (Simulation time: 0 hr 0 min 16 sec) 
Warmup complete CPU 2 instructions: 1977387 cycles: 560617 (Simulation time: 0 hr 0 min 16 sec) 
Warmup complete CPU 3 instructions: 1000002 cycles: 560617 (Simulation time: 0 hr 0 min 16 sec) 

Caught signal: 2
