
*** ChampSim Multicore Out-of-Order Simulator ***

Warmup Instructions: 1000000
Simulation Instructions: 10000000
Number of CPUs: 4
LLC sets: 16384
LLC ways: 16
Off-chip DRAM Size: 4096 MB Channels: 1 Width: 64-bit Data Rate: 3200 MT/s

CPU 0 runs dpc3_traces/619.lbm_s-3766B.champsimtrace.xz
CPU 1 runs dpc3_traces/403.gcc-16B.champsimtrace.xz
CPU 2 runs dpc3_traces/401.bzip2-277B.champsimtrace.xz
CPU 3 runs dpc3_traces/620.omnetpp_s-874B.champsimtrace.xz
CPU 0 Bimodal branch predictor
CPU 1 Bimodal branch predictor
CPU 2 Bimodal branch predictor
CPU 3 Bimodal branch predictor
Initialize DRRIP state
Assign rand_sets[0]: 454  LLC: 16384
rand_sets[0]: 454
Assign rand_sets[1]: 5758  LLC: 16384
rand_sets[1]: 5758
Assign rand_sets[2]: 10113  LLC: 16384
rand_sets[2]: 10113
Assign rand_sets[3]: 1131  LLC: 16384
rand_sets[3]: 1131
Assign rand_sets[4]: 14667  LLC: 16384
rand_sets[4]: 14667
Assign rand_sets[5]: 5627  LLC: 16384
rand_sets[5]: 5627
Assign rand_sets[6]: 6626  LLC: 16384
rand_sets[6]: 6626
Assign rand_sets[7]: 7419  LLC: 16384
rand_sets[7]: 7419
Assign rand_sets[8]: 16212  LLC: 16384
rand_sets[8]: 16212
Assign rand_sets[9]: 4086  LLC: 16384
rand_sets[9]: 4086
Assign rand_sets[10]: 2749  LLC: 16384
rand_sets[10]: 2749
Assign rand_sets[11]: 12767  LLC: 16384
rand_sets[11]: 12767
Assign rand_sets[12]: 9084  LLC: 16384
rand_sets[12]: 9084
Assign rand_sets[13]: 12060  LLC: 16384
rand_sets[13]: 12060
Assign rand_sets[14]: 15841  LLC: 16384
rand_sets[14]: 15841
Assign rand_sets[15]: 1159  LLC: 16384
rand_sets[15]: 1159
Assign rand_sets[16]: 8705  LLC: 16384
rand_sets[16]: 8705
Assign rand_sets[17]: 4799  LLC: 16384
rand_sets[17]: 4799
Assign rand_sets[18]: 8753  LLC: 16384
rand_sets[18]: 8753
Assign rand_sets[19]: 9182  LLC: 16384
rand_sets[19]: 9182
Assign rand_sets[20]: 10582  LLC: 16384
rand_sets[20]: 10582
Assign rand_sets[21]: 4978  LLC: 16384
rand_sets[21]: 4978
Assign rand_sets[22]: 4111  LLC: 16384
rand_sets[22]: 4111
Assign rand_sets[23]: 10311  LLC: 16384
rand_sets[23]: 10311
Assign rand_sets[24]: 11367  LLC: 16384
rand_sets[24]: 11367
Assign rand_sets[25]: 13670  LLC: 16384
rand_sets[25]: 13670
Assign rand_sets[26]: 647  LLC: 16384
rand_sets[26]: 647
Assign rand_sets[27]: 13145  LLC: 16384
rand_sets[27]: 13145
Assign rand_sets[28]: 3498  LLC: 16384
rand_sets[28]: 3498
Assign rand_sets[29]: 9352  LLC: 16384
rand_sets[29]: 9352
Assign rand_sets[30]: 14140  LLC: 16384
rand_sets[30]: 14140
Assign rand_sets[31]: 12121  LLC: 16384
rand_sets[31]: 12121
Assign rand_sets[32]: 12010  LLC: 16384
rand_sets[32]: 12010
Assign rand_sets[33]: 5718  LLC: 16384
rand_sets[33]: 5718
Assign rand_sets[34]: 8467  LLC: 16384
rand_sets[34]: 8467
Assign rand_sets[35]: 2683  LLC: 16384
rand_sets[35]: 2683
Assign rand_sets[36]: 12754  LLC: 16384
rand_sets[36]: 12754
Assign rand_sets[37]: 11653  LLC: 16384
rand_sets[37]: 11653
Assign rand_sets[38]: 6561  LLC: 16384
rand_sets[38]: 6561
Assign rand_sets[39]: 10712  LLC: 16384
rand_sets[39]: 10712
Assign rand_sets[40]: 13628  LLC: 16384
rand_sets[40]: 13628
Assign rand_sets[41]: 15188  LLC: 16384
rand_sets[41]: 15188
Assign rand_sets[42]: 15701  LLC: 16384
rand_sets[42]: 15701
Assign rand_sets[43]: 4143  LLC: 16384
rand_sets[43]: 4143
Assign rand_sets[44]: 6967  LLC: 16384
rand_sets[44]: 6967
Assign rand_sets[45]: 15022  LLC: 16384
rand_sets[45]: 15022
Assign rand_sets[46]: 7781  LLC: 16384
rand_sets[46]: 7781
Assign rand_sets[47]: 13403  LLC: 16384
rand_sets[47]: 13403
Assign rand_sets[48]: 9178  LLC: 16384
rand_sets[48]: 9178
Assign rand_sets[49]: 8450  LLC: 16384
rand_sets[49]: 8450
Assign rand_sets[50]: 14969  LLC: 16384
rand_sets[50]: 14969
Assign rand_sets[51]: 920  LLC: 16384
rand_sets[51]: 920
Assign rand_sets[52]: 10444  LLC: 16384
rand_sets[52]: 10444
Assign rand_sets[53]: 8419  LLC: 16384
rand_sets[53]: 8419
Assign rand_sets[54]: 7962  LLC: 16384
rand_sets[54]: 7962
Assign rand_sets[55]: 2934  LLC: 16384
rand_sets[55]: 2934
Assign rand_sets[56]: 1422  LLC: 16384
rand_sets[56]: 1422
Assign rand_sets[57]: 14943  LLC: 16384
rand_sets[57]: 14943
Assign rand_sets[58]: 10457  LLC: 16384
rand_sets[58]: 10457
Assign rand_sets[59]: 1945  LLC: 16384
rand_sets[59]: 1945
Assign rand_sets[60]: 14479  LLC: 16384
rand_sets[60]: 14479
Assign rand_sets[61]: 13599  LLC: 16384
rand_sets[61]: 13599
Assign rand_sets[62]: 2367  LLC: 16384
rand_sets[62]: 2367
Assign rand_sets[63]: 3894  LLC: 16384
rand_sets[63]: 3894
Assign rand_sets[64]: 2286  LLC: 16384
rand_sets[64]: 2286
Assign rand_sets[65]: 8259  LLC: 16384
rand_sets[65]: 8259
Assign rand_sets[66]: 16248  LLC: 16384
rand_sets[66]: 16248
Assign rand_sets[67]: 7757  LLC: 16384
rand_sets[67]: 7757
Assign rand_sets[68]: 15629  LLC: 16384
rand_sets[68]: 15629
Assign rand_sets[69]: 13306  LLC: 16384
rand_sets[69]: 13306
Assign rand_sets[70]: 12222  LLC: 16384
rand_sets[70]: 12222
Assign rand_sets[71]: 13990  LLC: 16384
rand_sets[71]: 13990
Assign rand_sets[72]: 11738  LLC: 16384
rand_sets[72]: 11738
Assign rand_sets[73]: 12516  LLC: 16384
rand_sets[73]: 12516
Assign rand_sets[74]: 1414  LLC: 16384
rand_sets[74]: 1414
Assign rand_sets[75]: 5262  LLC: 16384
rand_sets[75]: 5262
Assign rand_sets[76]: 732  LLC: 16384
rand_sets[76]: 732
Assign rand_sets[77]: 6441  LLC: 16384
rand_sets[77]: 6441
Assign rand_sets[78]: 3181  LLC: 16384
rand_sets[78]: 3181
Assign rand_sets[79]: 13134  LLC: 16384
rand_sets[79]: 13134
Assign rand_sets[80]: 8959  LLC: 16384
rand_sets[80]: 8959
Assign rand_sets[81]: 8022  LLC: 16384
rand_sets[81]: 8022
Assign rand_sets[82]: 11233  LLC: 16384
rand_sets[82]: 11233
Assign rand_sets[83]: 7536  LLC: 16384
rand_sets[83]: 7536
Assign rand_sets[84]: 9760  LLC: 16384
rand_sets[84]: 9760
Assign rand_sets[85]: 9979  LLC: 16384
rand_sets[85]: 9979
Assign rand_sets[86]: 12687  LLC: 16384
rand_sets[86]: 12687
Assign rand_sets[87]: 1201  LLC: 16384
rand_sets[87]: 1201
Assign rand_sets[88]: 4952  LLC: 16384
rand_sets[88]: 4952
Assign rand_sets[89]: 13061  LLC: 16384
rand_sets[89]: 13061
Assign rand_sets[90]: 5776  LLC: 16384
rand_sets[90]: 5776
Assign rand_sets[91]: 7621  LLC: 16384
rand_sets[91]: 7621
Assign rand_sets[92]: 14345  LLC: 16384
rand_sets[92]: 14345
Assign rand_sets[93]: 7644  LLC: 16384
rand_sets[93]: 7644
Assign rand_sets[94]: 11091  LLC: 16384
rand_sets[94]: 11091
Assign rand_sets[95]: 15309  LLC: 16384
rand_sets[95]: 15309
Assign rand_sets[96]: 9130  LLC: 16384
rand_sets[96]: 9130
Assign rand_sets[97]: 14139  LLC: 16384
rand_sets[97]: 14139
Assign rand_sets[98]: 5704  LLC: 16384
rand_sets[98]: 5704
Assign rand_sets[99]: 10137  LLC: 16384
rand_sets[99]: 10137
Assign rand_sets[100]: 5202  LLC: 16384
rand_sets[100]: 5202
Assign rand_sets[101]: 9171  LLC: 16384
rand_sets[101]: 9171
Assign rand_sets[102]: 4434  LLC: 16384
rand_sets[102]: 4434
Assign rand_sets[103]: 11933  LLC: 16384
rand_sets[103]: 11933
Assign rand_sets[104]: 8198  LLC: 16384
rand_sets[104]: 8198
Assign rand_sets[105]: 6815  LLC: 16384
rand_sets[105]: 6815
Assign rand_sets[106]: 4586  LLC: 16384
rand_sets[106]: 4586
Assign rand_sets[107]: 9653  LLC: 16384
rand_sets[107]: 9653
Assign rand_sets[108]: 9922  LLC: 16384
rand_sets[108]: 9922
Assign rand_sets[109]: 7174  LLC: 16384
rand_sets[109]: 7174
Assign rand_sets[110]: 2067  LLC: 16384
rand_sets[110]: 2067
Assign rand_sets[111]: 7064  LLC: 16384
rand_sets[111]: 7064
Assign rand_sets[112]: 6473  LLC: 16384
rand_sets[112]: 6473
Assign rand_sets[113]: 16050  LLC: 16384
rand_sets[113]: 16050
Assign rand_sets[114]: 8193  LLC: 16384
rand_sets[114]: 8193
Assign rand_sets[115]: 14110  LLC: 16384
rand_sets[115]: 14110
Assign rand_sets[116]: 8364  LLC: 16384
rand_sets[116]: 8364
Assign rand_sets[117]: 11826  LLC: 16384
rand_sets[117]: 11826
Assign rand_sets[118]: 12936  LLC: 16384
rand_sets[118]: 12936
Assign rand_sets[119]: 15665  LLC: 16384
rand_sets[119]: 15665
Assign rand_sets[120]: 12956  LLC: 16384
rand_sets[120]: 12956
Assign rand_sets[121]: 14162  LLC: 16384
rand_sets[121]: 14162
Assign rand_sets[122]: 4166  LLC: 16384
rand_sets[122]: 4166
Assign rand_sets[123]: 14997  LLC: 16384
rand_sets[123]: 14997
Assign rand_sets[124]: 7793  LLC: 16384
rand_sets[124]: 7793
Assign rand_sets[125]: 15926  LLC: 16384
rand_sets[125]: 15926
Assign rand_sets[126]: 5007  LLC: 16384
rand_sets[126]: 5007
Assign rand_sets[127]: 3415  LLC: 16384
rand_sets[127]: 3415
Assign rand_sets[128]: 7926  LLC: 16384
rand_sets[128]: 7926
Assign rand_sets[129]: 14905  LLC: 16384
rand_sets[129]: 14905
Assign rand_sets[130]: 9501  LLC: 16384
rand_sets[130]: 9501
Assign rand_sets[131]: 2582  LLC: 16384
rand_sets[131]: 2582
Assign rand_sets[132]: 15610  LLC: 16384
rand_sets[132]: 15610
Assign rand_sets[133]: 5000  LLC: 16384
rand_sets[133]: 5000
Assign rand_sets[134]: 8052  LLC: 16384
rand_sets[134]: 8052
Assign rand_sets[135]: 14581  LLC: 16384
rand_sets[135]: 14581
Assign rand_sets[136]: 3736  LLC: 16384
rand_sets[136]: 3736
Assign rand_sets[137]: 15996  LLC: 16384
rand_sets[137]: 15996
Assign rand_sets[138]: 15639  LLC: 16384
rand_sets[138]: 15639
Assign rand_sets[139]: 9820  LLC: 16384
rand_sets[139]: 9820
Assign rand_sets[140]: 8001  LLC: 16384
rand_sets[140]: 8001
Assign rand_sets[141]: 12475  LLC: 16384
rand_sets[141]: 12475
Assign rand_sets[142]: 15725  LLC: 16384
rand_sets[142]: 15725
Assign rand_sets[143]: 881  LLC: 16384
rand_sets[143]: 881
Assign rand_sets[144]: 3214  LLC: 16384
rand_sets[144]: 3214
Assign rand_sets[145]: 3087  LLC: 16384
rand_sets[145]: 3087
Assign rand_sets[146]: 11376  LLC: 16384
rand_sets[146]: 11376
Assign rand_sets[147]: 4697  LLC: 16384
rand_sets[147]: 4697
Assign rand_sets[148]: 9159  LLC: 16384
rand_sets[148]: 9159
Assign rand_sets[149]: 6913  LLC: 16384
rand_sets[149]: 6913
Assign rand_sets[150]: 14619  LLC: 16384
rand_sets[150]: 14619
Assign rand_sets[151]: 6703  LLC: 16384
rand_sets[151]: 6703
Assign rand_sets[152]: 3123  LLC: 16384
rand_sets[152]: 3123
Assign rand_sets[153]: 15165  LLC: 16384
rand_sets[153]: 15165
Assign rand_sets[154]: 1681  LLC: 16384
rand_sets[154]: 1681
Assign rand_sets[155]: 7872  LLC: 16384
rand_sets[155]: 7872
Assign rand_sets[156]: 2589  LLC: 16384
rand_sets[156]: 2589
Assign rand_sets[157]: 4517  LLC: 16384
rand_sets[157]: 4517
Assign rand_sets[158]: 9229  LLC: 16384
rand_sets[158]: 9229
Assign rand_sets[159]: 6157  LLC: 16384
rand_sets[159]: 6157
Assign rand_sets[160]: 9899  LLC: 16384
rand_sets[160]: 9899
Assign rand_sets[161]: 9267  LLC: 16384
rand_sets[161]: 9267
Assign rand_sets[162]: 6029  LLC: 16384
rand_sets[162]: 6029
Assign rand_sets[163]: 9598  LLC: 16384
rand_sets[163]: 9598
Assign rand_sets[164]: 2142  LLC: 16384
rand_sets[164]: 2142
Assign rand_sets[165]: 13711  LLC: 16384
rand_sets[165]: 13711
Assign rand_sets[166]: 10046  LLC: 16384
rand_sets[166]: 10046
Assign rand_sets[167]: 14566  LLC: 16384
rand_sets[167]: 14566
Assign rand_sets[168]: 2152  LLC: 16384
rand_sets[168]: 2152
Assign rand_sets[169]: 15988  LLC: 16384
rand_sets[169]: 15988
Assign rand_sets[170]: 3494  LLC: 16384
rand_sets[170]: 3494
Assign rand_sets[171]: 13626  LLC: 16384
rand_sets[171]: 13626
Assign rand_sets[172]: 4273  LLC: 16384
rand_sets[172]: 4273
Assign rand_sets[173]: 8387  LLC: 16384
rand_sets[173]: 8387
Assign rand_sets[174]: 1171  LLC: 16384
rand_sets[174]: 1171
Assign rand_sets[175]: 15633  LLC: 16384
rand_sets[175]: 15633
Assign rand_sets[176]: 3752  LLC: 16384
rand_sets[176]: 3752
Assign rand_sets[177]: 12388  LLC: 16384
rand_sets[177]: 12388
Assign rand_sets[178]: 4807  LLC: 16384
rand_sets[178]: 4807
Assign rand_sets[179]: 11483  LLC: 16384
rand_sets[179]: 11483
Assign rand_sets[180]: 1738  LLC: 16384
rand_sets[180]: 1738
Assign rand_sets[181]: 11744  LLC: 16384
rand_sets[181]: 11744
Assign rand_sets[182]: 2144  LLC: 16384
rand_sets[182]: 2144
Assign rand_sets[183]: 15585  LLC: 16384
rand_sets[183]: 15585
Assign rand_sets[184]: 5363  LLC: 16384
rand_sets[184]: 5363
Assign rand_sets[185]: 3775  LLC: 16384
rand_sets[185]: 3775
Assign rand_sets[186]: 5641  LLC: 16384
rand_sets[186]: 5641
Assign rand_sets[187]: 1792  LLC: 16384
rand_sets[187]: 1792
Assign rand_sets[188]: 9575  LLC: 16384
rand_sets[188]: 9575
Assign rand_sets[189]: 12194  LLC: 16384
rand_sets[189]: 12194
Assign rand_sets[190]: 10979  LLC: 16384
rand_sets[190]: 10979
Assign rand_sets[191]: 11301  LLC: 16384
rand_sets[191]: 11301
Assign rand_sets[192]: 12960  LLC: 16384
rand_sets[192]: 12960
Assign rand_sets[193]: 3105  LLC: 16384
rand_sets[193]: 3105
Assign rand_sets[194]: 1329  LLC: 16384
rand_sets[194]: 1329
Assign rand_sets[195]: 5511  LLC: 16384
rand_sets[195]: 5511
Assign rand_sets[196]: 5077  LLC: 16384
rand_sets[196]: 5077
Assign rand_sets[197]: 6242  LLC: 16384
rand_sets[197]: 6242
Assign rand_sets[198]: 8645  LLC: 16384
rand_sets[198]: 8645
Assign rand_sets[199]: 3496  LLC: 16384
rand_sets[199]: 3496
Assign rand_sets[200]: 10319  LLC: 16384
rand_sets[200]: 10319
Assign rand_sets[201]: 6270  LLC: 16384
rand_sets[201]: 6270
Assign rand_sets[202]: 13870  LLC: 16384
rand_sets[202]: 13870
Assign rand_sets[203]: 11529  LLC: 16384
rand_sets[203]: 11529
Assign rand_sets[204]: 11115  LLC: 16384
rand_sets[204]: 11115
Assign rand_sets[205]: 4500  LLC: 16384
rand_sets[205]: 4500
Assign rand_sets[206]: 8607  LLC: 16384
rand_sets[206]: 8607
Assign rand_sets[207]: 5808  LLC: 16384
rand_sets[207]: 5808
Assign rand_sets[208]: 15725  LLC: 16384
Assign rand_sets[208]: 12457  LLC: 16384
rand_sets[208]: 12457
Assign rand_sets[209]: 158  LLC: 16384
rand_sets[209]: 158
Assign rand_sets[210]: 90  LLC: 16384
rand_sets[210]: 90
Assign rand_sets[211]: 11531  LLC: 16384
rand_sets[211]: 11531
Assign rand_sets[212]: 838  LLC: 16384
rand_sets[212]: 838
Assign rand_sets[213]: 3952  LLC: 16384
rand_sets[213]: 3952
Assign rand_sets[214]: 640  LLC: 16384
rand_sets[214]: 640
Assign rand_sets[215]: 3510  LLC: 16384
rand_sets[215]: 3510
Assign rand_sets[216]: 7631  LLC: 16384
rand_sets[216]: 7631
Assign rand_sets[217]: 1863  LLC: 16384
rand_sets[217]: 1863
Assign rand_sets[218]: 11276  LLC: 16384
rand_sets[218]: 11276
Assign rand_sets[219]: 9894  LLC: 16384
rand_sets[219]: 9894
Assign rand_sets[220]: 2981  LLC: 16384
rand_sets[220]: 2981
Assign rand_sets[221]: 8746  LLC: 16384
rand_sets[221]: 8746
Assign rand_sets[222]: 5592  LLC: 16384
rand_sets[222]: 5592
Assign rand_sets[223]: 1708  LLC: 16384
rand_sets[223]: 1708
Assign rand_sets[224]: 9467  LLC: 16384
rand_sets[224]: 9467
Assign rand_sets[225]: 12704  LLC: 16384
rand_sets[225]: 12704
Assign rand_sets[226]: 12779  LLC: 16384
rand_sets[226]: 12779
Assign rand_sets[227]: 2231  LLC: 16384
rand_sets[227]: 2231
Assign rand_sets[228]: 9849  LLC: 16384
rand_sets[228]: 9849
Assign rand_sets[229]: 13348  LLC: 16384
rand_sets[229]: 13348
Assign rand_sets[230]: 4722  LLC: 16384
rand_sets[230]: 4722
Assign rand_sets[231]: 5411  LLC: 16384
rand_sets[231]: 5411
Assign rand_sets[232]: 9874  LLC: 16384
rand_sets[232]: 9874
Assign rand_sets[233]: 5448  LLC: 16384
rand_sets[233]: 5448
Assign rand_sets[234]: 9344  LLC: 16384
rand_sets[234]: 9344
Assign rand_sets[235]: 11205  LLC: 16384
rand_sets[235]: 11205
Assign rand_sets[236]: 1190  LLC: 16384
rand_sets[236]: 1190
Assign rand_sets[237]: 1191  LLC: 16384
rand_sets[237]: 1191
Assign rand_sets[238]: 6789  LLC: 16384
rand_sets[238]: 6789
Assign rand_sets[239]: 695  LLC: 16384
rand_sets[239]: 695
Assign rand_sets[240]: 11735  LLC: 16384
rand_sets[240]: 11735
Assign rand_sets[241]: 3980  LLC: 16384
rand_sets[241]: 3980
Assign rand_sets[242]: 656  LLC: 16384
rand_sets[242]: 656
Assign rand_sets[243]: 1508  LLC: 16384
rand_sets[243]: 1508
Assign rand_sets[244]: 5035  LLC: 16384
rand_sets[244]: 5035
Assign rand_sets[245]: 10595  LLC: 16384
rand_sets[245]: 10595
Assign rand_sets[246]: 1092  LLC: 16384
rand_sets[246]: 1092
Assign rand_sets[247]: 850  LLC: 16384
rand_sets[247]: 850
Assign rand_sets[248]: 12390  LLC: 16384
rand_sets[248]: 12390
Assign rand_sets[249]: 3811  LLC: 16384
rand_sets[249]: 3811
Assign rand_sets[250]: 668  LLC: 16384
rand_sets[250]: 668
Assign rand_sets[251]: 4147  LLC: 16384
rand_sets[251]: 4147
Assign rand_sets[252]: 13605  LLC: 16384
rand_sets[252]: 13605
Assign rand_sets[253]: 12281  LLC: 16384
rand_sets[253]: 12281
Assign rand_sets[254]: 7518  LLC: 16384
rand_sets[254]: 7518
Assign rand_sets[255]: 12970  LLC: 16384
rand_sets[255]: 12970

Warmup complete CPU 0 instructions: 1732281 cycles: 560595 (Simulation time: 0 hr 0 min 15 sec) 
Warmup complete CPU 1 instructions: 1241471 cycles: 560595 (Simulation time: 0 hr 0 min 15 sec) 
Warmup complete CPU 2 instructions: 1977666 cycles: 560595 (Simulation time: 0 hr 0 min 15 sec) 
Warmup complete CPU 3 instructions: 1000002 cycles: 560595 (Simulation time: 0 hr 0 min 15 sec) 

Heartbeat CPU 1 instructions: 10000002 cycles: 8226634 heartbeat IPC: 1.21556 cumulative IPC: 1.14251 (Simulation time: 0 hr 1 min 24 sec) 
Heartbeat CPU 2 instructions: 10000002 cycles: 8406637 heartbeat IPC: 1.18954 cumulative IPC: 1.02247 (Simulation time: 0 hr 1 min 26 sec) 
Finished CPU 1 instructions: 10000000 cycles: 8696037 cumulative IPC: 1.14995 (Simulation time: 0 hr 1 min 34 sec) 
Heartbeat CPU 0 instructions: 10000000 cycles: 10060725 heartbeat IPC: 0.993964 cumulative IPC: 0.870274 (Simulation time: 0 hr 1 min 40 sec) 
Finished CPU 2 instructions: 10000001 cycles: 9621749 cumulative IPC: 1.03931 (Simulation time: 0 hr 1 min 41 sec) 
Finished CPU 0 instructions: 10000002 cycles: 11982093 cumulative IPC: 0.834579 (Simulation time: 0 hr 2 min 4 sec) 
Heartbeat CPU 2 instructions: 20000002 cycles: 16657717 heartbeat IPC: 1.21196 cumulative IPC: 1.1196 (Simulation time: 0 hr 2 min 40 sec) 
Heartbeat CPU 1 instructions: 20000001 cycles: 16892255 heartbeat IPC: 1.15399 cumulative IPC: 1.1486 (Simulation time: 0 hr 2 min 40 sec) 
Heartbeat CPU 0 instructions: 20000001 cycles: 24690999 heartbeat IPC: 0.683514 cumulative IPC: 0.757042 (Simulation time: 0 hr 3 min 46 sec) 
Heartbeat CPU 1 instructions: 30000000 cycles: 25521368 heartbeat IPC: 1.15887 cumulative IPC: 1.15215 (Simulation time: 0 hr 3 min 53 sec) 
Heartbeat CPU 2 instructions: 30000002 cycles: 26816120 heartbeat IPC: 0.984407 cumulative IPC: 1.06729 (Simulation time: 0 hr 4 min 3 sec) 
Heartbeat CPU 1 instructions: 40000000 cycles: 34169103 heartbeat IPC: 1.15637 cumulative IPC: 1.15324 (Simulation time: 0 hr 5 min 3 sec) 
Heartbeat CPU 3 instructions: 10000001 cycles: 35456598 heartbeat IPC: 0.282035 cumulative IPC: 0.257909 (Simulation time: 0 hr 5 min 14 sec) 
Heartbeat CPU 2 instructions: 40000001 cycles: 36892126 heartbeat IPC: 0.992457 cumulative IPC: 1.04654 (Simulation time: 0 hr 5 min 25 sec) 
Finished CPU 3 instructions: 10000003 cycles: 38878480 cumulative IPC: 0.257212 (Simulation time: 0 hr 5 min 46 sec) 

ChampSim completed all CPUs

Total Simulation Statistics (not including warmup)

CPU 0 cumulative IPC: 0.714952 instructions: 27796256 cycles: 38878480
L1D TOTAL     ACCESS:    6487993  HIT:    5501459  MISS:     986534
L1D LOAD      ACCESS:    2354739  HIT:    2205263  MISS:     149476
L1D RFO       ACCESS:    4133254  HIT:    3296196  MISS:     837058
L1D PREFETCH  ACCESS:          0  HIT:          0  MISS:          0
L1D WRITEBACK ACCESS:          0  HIT:          0  MISS:          0
L1I TOTAL     ACCESS:    4252128  HIT:    4252128  MISS:          0
L1I LOAD      ACCESS:    4252128  HIT:    4252128  MISS:          0
L1I RFO       ACCESS:          0  HIT:          0  MISS:          0
L1I PREFETCH  ACCESS:          0  HIT:          0  MISS:          0
L1I WRITEBACK ACCESS:          0  HIT:          0  MISS:          0
L2C TOTAL     ACCESS:    1823595  HIT:    1218142  MISS:     605453
L2C LOAD      ACCESS:     149476  HIT:          0  MISS:     149476
L2C RFO       ACCESS:     837058  HIT:     381087  MISS:     455971
L2C PREFETCH  ACCESS:          0  HIT:          0  MISS:          0
L2C WRITEBACK ACCESS:     837061  HIT:     837055  MISS:          6
LLC TOTAL     ACCESS:    1061582  HIT:     463613  MISS:     597969
LLC LOAD      ACCESS:     149476  HIT:          0  MISS:     149476
LLC RFO       ACCESS:     455971  HIT:       8017  MISS:     447954
LLC PREFETCH  ACCESS:          0  HIT:          0  MISS:          0
LLC WRITEBACK ACCESS:     456135  HIT:     455596  MISS:        539

CPU 1 cumulative IPC: 1.1441 instructions: 44480779 cycles: 38878480
L1D TOTAL     ACCESS:    3142622  HIT:     920148  MISS:    2222474
L1D LOAD      ACCESS:     364619  HIT:     336578  MISS:      28041
L1D RFO       ACCESS:    2778003  HIT:     583570  MISS:    2194433
L1D PREFETCH  ACCESS:          0  HIT:          0  MISS:          0
L1D WRITEBACK ACCESS:          0  HIT:          0  MISS:          0
L1I TOTAL     ACCESS:    8476335  HIT:    8474058  MISS:       2277
L1I LOAD      ACCESS:    8476335  HIT:    8474058  MISS:       2277
L1I RFO       ACCESS:          0  HIT:          0  MISS:          0
L1I PREFETCH  ACCESS:          0  HIT:          0  MISS:          0
L1I WRITEBACK ACCESS:          0  HIT:          0  MISS:          0
L2C TOTAL     ACCESS:    4426647  HIT:    2948499  MISS:    1478148
L2C LOAD      ACCESS:      30318  HIT:       4390  MISS:      25928
L2C RFO       ACCESS:    2194433  HIT:     742213  MISS:    1452220
L2C PREFETCH  ACCESS:          0  HIT:          0  MISS:          0
L2C WRITEBACK ACCESS:    2201896  HIT:    2201896  MISS:          0
LLC TOTAL     ACCESS:    2936216  HIT:    2925420  MISS:      10796
LLC LOAD      ACCESS:      25928  HIT:      19479  MISS:       6449
LLC RFO       ACCESS:    1452220  HIT:    1448010  MISS:       4210
LLC PREFETCH  ACCESS:          0  HIT:          0  MISS:          0
LLC WRITEBACK ACCESS:    1458068  HIT:    1457931  MISS:        137

CPU 2 cumulative IPC: 1.04642 instructions: 40683278 cycles: 38878480
L1D TOTAL     ACCESS:    8844493  HIT:    8389521  MISS:     454972
L1D LOAD      ACCESS:    5386167  HIT:    4971374  MISS:     414793
L1D RFO       ACCESS:    3458326  HIT:    3418147  MISS:      40179
L1D PREFETCH  ACCESS:          0  HIT:          0  MISS:          0
L1D WRITEBACK ACCESS:          0  HIT:          0  MISS:          0
L1I TOTAL     ACCESS:    6224408  HIT:    6224282  MISS:        126
L1I LOAD      ACCESS:    6224408  HIT:    6224282  MISS:        126
L1I RFO       ACCESS:          0  HIT:          0  MISS:          0
L1I PREFETCH  ACCESS:          0  HIT:          0  MISS:          0
L1I WRITEBACK ACCESS:          0  HIT:          0  MISS:          0
L2C TOTAL     ACCESS:     498272  HIT:     234205  MISS:     264067
L2C LOAD      ACCESS:     414919  HIT:     181005  MISS:     233914
L2C RFO       ACCESS:      40179  HIT:      10042  MISS:      30137
L2C PREFETCH  ACCESS:          0  HIT:          0  MISS:          0
L2C WRITEBACK ACCESS:      43174  HIT:      43158  MISS:         16
LLC TOTAL     ACCESS:     287432  HIT:     251905  MISS:      35527
LLC LOAD      ACCESS:     233914  HIT:     212348  MISS:      21566
LLC RFO       ACCESS:      30137  HIT:      16649  MISS:      13488
LLC PREFETCH  ACCESS:          0  HIT:          0  MISS:          0
LLC WRITEBACK ACCESS:      23381  HIT:      22908  MISS:        473

CPU 3 cumulative IPC: 0.257212 instructions: 10000003 cycles: 38878480
L1D TOTAL     ACCESS:    4221004  HIT:    4040976  MISS:     180028
L1D LOAD      ACCESS:    2433164  HIT:    2277226  MISS:     155938
L1D RFO       ACCESS:    1787840  HIT:    1763750  MISS:      24090
L1D PREFETCH  ACCESS:          0  HIT:          0  MISS:          0
L1D WRITEBACK ACCESS:          0  HIT:          0  MISS:          0
L1I TOTAL     ACCESS:    1780701  HIT:    1776918  MISS:       3783
L1I LOAD      ACCESS:    1780701  HIT:    1776918  MISS:       3783
L1I RFO       ACCESS:          0  HIT:          0  MISS:          0
L1I PREFETCH  ACCESS:          0  HIT:          0  MISS:          0
L1I WRITEBACK ACCESS:          0  HIT:          0  MISS:          0
L2C TOTAL     ACCESS:     273749  HIT:     155895  MISS:     117854
L2C LOAD      ACCESS:     159718  HIT:      56894  MISS:     102824
L2C RFO       ACCESS:      24089  HIT:       9144  MISS:      14945
L2C PREFETCH  ACCESS:          0  HIT:          0  MISS:          0
L2C WRITEBACK ACCESS:      89942  HIT:      89857  MISS:         85
LLC TOTAL     ACCESS:     176275  HIT:      84941  MISS:      91334
LLC LOAD      ACCESS:     102823  HIT:      20057  MISS:      82766
LLC RFO       ACCESS:      14945  HIT:       6737  MISS:       8208
LLC PREFETCH  ACCESS:          0  HIT:          0  MISS:          0
LLC WRITEBACK ACCESS:      58507  HIT:      58147  MISS:        360

Region of Interest Statistics

CPU 0 cumulative IPC: 0.834579 instructions: 10000002 cycles: 11982093
L1D TOTAL     ACCESS:    2332223  HIT:    1979456  MISS:     352767
L1D LOAD      ACCESS:     846914  HIT:     793464  MISS:      53450
L1D RFO       ACCESS:    1485309  HIT:    1185992  MISS:     299317
L1D PREFETCH  ACCESS:          0  HIT:          0  MISS:          0
L1D WRITEBACK ACCESS:          0  HIT:          0  MISS:          0
L1D PREFETCH  REQUESTED:          0  ISSUED:          0  USEFUL:          0  USELESS:          0
L1D AVERAGE MISS LATENCY: 690.841 cycles
L1I TOTAL     ACCESS:    1527475  HIT:    1527475  MISS:          0
L1I LOAD      ACCESS:    1527475  HIT:    1527475  MISS:          0
L1I RFO       ACCESS:          0  HIT:          0  MISS:          0
L1I PREFETCH  ACCESS:          0  HIT:          0  MISS:          0
L1I WRITEBACK ACCESS:          0  HIT:          0  MISS:          0
L1I PREFETCH  REQUESTED:          0  ISSUED:          0  USEFUL:          0  USELESS:          0
L1I AVERAGE MISS LATENCY: -nan cycles
L2C TOTAL     ACCESS:     652086  HIT:     435983  MISS:     216103
L2C LOAD      ACCESS:      53450  HIT:          0  MISS:      53450
L2C RFO       ACCESS:     299317  HIT:     136664  MISS:     162653
L2C PREFETCH  ACCESS:          0  HIT:          0  MISS:          0
L2C WRITEBACK ACCESS:     299319  HIT:     299319  MISS:          0
L2C PREFETCH  REQUESTED:          0  ISSUED:          0  USEFUL:          0  USELESS:          0
L2C AVERAGE MISS LATENCY: 1049 cycles
LLC TOTAL     ACCESS:     378989  HIT:     165009  MISS:     213980
LLC LOAD      ACCESS:      53450  HIT:          0  MISS:      53450
LLC RFO       ACCESS:     162654  HIT:       2306  MISS:     160348
LLC PREFETCH  ACCESS:          0  HIT:          0  MISS:          0
LLC WRITEBACK ACCESS:     162885  HIT:     162703  MISS:        182
LLC PREFETCH  REQUESTED:          0  ISSUED:          0  USEFUL:          0  USELESS:          0
LLC AVERAGE MISS LATENCY: 1182.16 cycles
Major fault: 0 Minor fault: 8107

CPU 1 cumulative IPC: 1.14995 instructions: 10000000 cycles: 8696037
L1D TOTAL     ACCESS:     724490  HIT:     226642  MISS:     497848
L1D LOAD      ACCESS:      92934  HIT:      86412  MISS:       6522
L1D RFO       ACCESS:     631556  HIT:     140230  MISS:     491326
L1D PREFETCH  ACCESS:          0  HIT:          0  MISS:          0
L1D WRITEBACK ACCESS:          0  HIT:          0  MISS:          0
L1D PREFETCH  REQUESTED:          0  ISSUED:          0  USEFUL:          0  USELESS:          0
L1D AVERAGE MISS LATENCY: 163.229 cycles
L1I TOTAL     ACCESS:    1906079  HIT:    1905527  MISS:        552
L1I LOAD      ACCESS:    1906079  HIT:    1905527  MISS:        552
L1I RFO       ACCESS:          0  HIT:          0  MISS:          0
L1I PREFETCH  ACCESS:          0  HIT:          0  MISS:          0
L1I WRITEBACK ACCESS:          0  HIT:          0  MISS:          0
L1I PREFETCH  REQUESTED:          0  ISSUED:          0  USEFUL:          0  USELESS:          0
L1I AVERAGE MISS LATENCY: 286.275 cycles
L2C TOTAL     ACCESS:     991373  HIT:     660876  MISS:     330497
L2C LOAD      ACCESS:       7074  HIT:        998  MISS:       6076
L2C RFO       ACCESS:     491326  HIT:     166905  MISS:     324421
L2C PREFETCH  ACCESS:          0  HIT:          0  MISS:          0
L2C WRITEBACK ACCESS:     492973  HIT:     492973  MISS:          0
L2C PREFETCH  REQUESTED:          0  ISSUED:          0  USEFUL:          0  USELESS:          0
L2C AVERAGE MISS LATENCY: 145.375 cycles
LLC TOTAL     ACCESS:     656155  HIT:     652972  MISS:       3183
LLC LOAD      ACCESS:       6076  HIT:       4297  MISS:       1779
LLC RFO       ACCESS:     324422  HIT:     323018  MISS:       1404
LLC PREFETCH  ACCESS:          0  HIT:          0  MISS:          0
LLC WRITEBACK ACCESS:     325657  HIT:     325657  MISS:          0
LLC PREFETCH  REQUESTED:          0  ISSUED:          0  USEFUL:          0  USELESS:          0
LLC AVERAGE MISS LATENCY: 79471.7 cycles
Major fault: 0 Minor fault: 847

CPU 2 cumulative IPC: 1.03931 instructions: 10000001 cycles: 9621749
L1D TOTAL     ACCESS:    1229244  HIT:     973550  MISS:     255694
L1D LOAD      ACCESS:     801627  HIT:     557806  MISS:     243821
L1D RFO       ACCESS:     427617  HIT:     415744  MISS:      11873
L1D PREFETCH  ACCESS:          0  HIT:          0  MISS:          0
L1D WRITEBACK ACCESS:          0  HIT:          0  MISS:          0
L1D PREFETCH  REQUESTED:          0  ISSUED:          0  USEFUL:          0  USELESS:          0
L1D AVERAGE MISS LATENCY: 100.287 cycles
L1I TOTAL     ACCESS:    1339182  HIT:    1339182  MISS:          0
L1I LOAD      ACCESS:    1339182  HIT:    1339182  MISS:          0
L1I RFO       ACCESS:          0  HIT:          0  MISS:          0
L1I PREFETCH  ACCESS:          0  HIT:          0  MISS:          0
L1I WRITEBACK ACCESS:          0  HIT:          0  MISS:          0
L1I PREFETCH  REQUESTED:          0  ISSUED:          0  USEFUL:          0  USELESS:          0
L1I AVERAGE MISS LATENCY: inf cycles
L2C TOTAL     ACCESS:     269459  HIT:     118196  MISS:     151263
L2C LOAD      ACCESS:     243821  HIT:      99242  MISS:     144579
L2C RFO       ACCESS:      11873  HIT:       5189  MISS:       6684
L2C PREFETCH  ACCESS:          0  HIT:          0  MISS:          0
L2C WRITEBACK ACCESS:      13765  HIT:      13765  MISS:          0
L2C PREFETCH  REQUESTED:          0  ISSUED:          0  USEFUL:          0  USELESS:          0
L2C AVERAGE MISS LATENCY: 124.684 cycles
LLC TOTAL     ACCESS:     157729  HIT:     133860  MISS:      23869
LLC LOAD      ACCESS:     144579  HIT:     127358  MISS:      17221
LLC RFO       ACCESS:       6684  HIT:         43  MISS:       6641
LLC PREFETCH  ACCESS:          0  HIT:          0  MISS:          0
LLC WRITEBACK ACCESS:       6466  HIT:       6459  MISS:          7
LLC PREFETCH  REQUESTED:          0  ISSUED:          0  USEFUL:          0  USELESS:          0
LLC AVERAGE MISS LATENCY: 10597.8 cycles
Major fault: 0 Minor fault: 923

CPU 3 cumulative IPC: 0.257212 instructions: 10000003 cycles: 38878480
L1D TOTAL     ACCESS:    4221004  HIT:    4040976  MISS:     180028
L1D LOAD      ACCESS:    2433164  HIT:    2277226  MISS:     155938
L1D RFO       ACCESS:    1787840  HIT:    1763750  MISS:      24090
L1D PREFETCH  ACCESS:          0  HIT:          0  MISS:          0
L1D WRITEBACK ACCESS:          0  HIT:          0  MISS:          0
L1D PREFETCH  REQUESTED:          0  ISSUED:          0  USEFUL:          0  USELESS:          0
L1D AVERAGE MISS LATENCY: 208.544 cycles
L1I TOTAL     ACCESS:    1780701  HIT:    1776918  MISS:       3783
L1I LOAD      ACCESS:    1780701  HIT:    1776918  MISS:       3783
L1I RFO       ACCESS:          0  HIT:          0  MISS:          0
L1I PREFETCH  ACCESS:          0  HIT:          0  MISS:          0
L1I WRITEBACK ACCESS:          0  HIT:          0  MISS:          0
L1I PREFETCH  REQUESTED:          0  ISSUED:          0  USEFUL:          0  USELESS:          0
L1I AVERAGE MISS LATENCY: 33.5451 cycles
L2C TOTAL     ACCESS:     273749  HIT:     155895  MISS:     117854
L2C LOAD      ACCESS:     159718  HIT:      56894  MISS:     102824
L2C RFO       ACCESS:      24089  HIT:       9144  MISS:      14945
L2C PREFETCH  ACCESS:          0  HIT:          0  MISS:          0
L2C WRITEBACK ACCESS:      89942  HIT:      89857  MISS:         85
L2C PREFETCH  REQUESTED:          0  ISSUED:          0  USEFUL:          0  USELESS:          0
L2C AVERAGE MISS LATENCY: 288.258 cycles
LLC TOTAL     ACCESS:     176275  HIT:      84941  MISS:      91334
LLC LOAD      ACCESS:     102823  HIT:      20057  MISS:      82766
LLC RFO       ACCESS:      14945  HIT:       6737  MISS:       8208
LLC PREFETCH  ACCESS:          0  HIT:          0  MISS:          0
LLC WRITEBACK ACCESS:      58507  HIT:      58147  MISS:        360
LLC PREFETCH  REQUESTED:          0  ISSUED:          0  USEFUL:          0  USELESS:          0
LLC AVERAGE MISS LATENCY: 2769.6 cycles
Major fault: 0 Minor fault: 20675

DRAM Statistics
 CHANNEL 0
 RQ ROW_BUFFER_HIT:     155121  ROW_BUFFER_MISS:     578683
 DBUS_CONGESTED:     570361
 WQ ROW_BUFFER_HIT:      55296  ROW_BUFFER_MISS:     338494  FULL:          0

 AVG_CONGESTED_CYCLE: 6

CPU 0 Branch Prediction Accuracy: 99.6996% MPKI: 0.0312669 Average ROB Occupancy at Mispredict: 153.91

Branch types
NOT_BRANCH: 27499302 98.9317%
BRANCH_DIRECT_JUMP: 994 0.00357602%
BRANCH_INDIRECT: 0 0%
BRANCH_CONDITIONAL: 295963 1.06476%
BRANCH_DIRECT_CALL: 0 0%
BRANCH_INDIRECT_CALL: 0 0%
BRANCH_RETURN: 0 0%
BRANCH_OTHER: 0 0%


CPU 1 Branch Prediction Accuracy: 99.6278% MPKI: 0.726573 Average ROB Occupancy at Mispredict: 45.8125

Branch types
NOT_BRANCH: 35751624 80.3754%
BRANCH_DIRECT_JUMP: 46201 0.103867%
BRANCH_INDIRECT: 12253 0.0275467%
BRANCH_CONDITIONAL: 8585070 19.3006%
BRANCH_DIRECT_CALL: 42345 0.0951984%
BRANCH_INDIRECT_CALL: 652 0.0014658%
BRANCH_RETURN: 42995 0.0966597%
BRANCH_OTHER: 0 0%


CPU 2 Branch Prediction Accuracy: 90.7294% MPKI: 14.8965 Average ROB Occupancy at Mispredict: 21.5148

Branch types
NOT_BRANCH: 33988886 83.5451%
BRANCH_DIRECT_JUMP: 530024 1.30281%
BRANCH_INDIRECT: 17 4.17862e-05%
BRANCH_CONDITIONAL: 6162366 15.1472%
BRANCH_DIRECT_CALL: 957 0.00235232%
BRANCH_INDIRECT_CALL: 0 0%
BRANCH_RETURN: 956 0.00234986%
BRANCH_OTHER: 0 0%


CPU 3 Branch Prediction Accuracy: 95.7633% MPKI: 8.7938 Average ROB Occupancy at Mispredict: 78.9104

Branch types
NOT_BRANCH: 7924039 79.2404%
BRANCH_DIRECT_JUMP: 112889 1.12889%
BRANCH_INDIRECT: 33554 0.33554%
BRANCH_CONDITIONAL: 1335991 13.3599%
BRANCH_DIRECT_CALL: 177453 1.77453%
BRANCH_INDIRECT_CALL: 119145 1.19145%
BRANCH_RETURN: 296598 2.96598%
BRANCH_OTHER: 0 0%

